/*---------------------------------------------------------------------------*\
| =========                 |                                                 |
| \\      /  F ield         | OpenFOAM: The Open Source CFD Toolbox           |
|  \\    /   O peration     | Version:  2412                                  |
|   \\  /    A nd           | Website:  www.openfoam.com                      |
|    \\/     M anipulation  |                                                 |
\*---------------------------------------------------------------------------*/
Build  : _8dbc61e11c-20241220 OPENFOAM=2412 version=v2412
Arch   : "LSB;label=32;scalar=64"
Exec   : decomposePar -decomposeParDict system/decomposeParDict
Date   : Oct 23 2025
Time   : 17:52:43
Host   : rpasolari
PID    : 215891
I/O    : uncollated
Case   : /home/rpasolari-wsl/Linux-Desktop/CERTH/solvers/OpenFOAM/OF2412/foamPlasmaToolkit/tests/2DTestPlasmaFoam
nProcs : 1
trapFpe: Floating point exception trapping enabled (FOAM_SIGFPE).
fileModificationChecking : Monitoring run-time modified files using timeStampMaster (fileModificationSkew 5, maxFileModificationPolls 20)
allowSystemOperations : Allowing user-supplied system call operations

// * * * * * * * * * * * * * * * * * * * * * * * * * * * * * * * * * * * * * //
Create time



Decomposing mesh

Create mesh

Calculating distribution of cells
Decomposition method scotch [4] (region region0)
Selecting decompositionConstraint preserveFaceZones
preserveFaceZones : adding constraints to keep owner and neighbour of faces in zones 1(interfaceZone) on same processor

Finished decomposition in 0 s

Calculating original mesh data

Distributing cells to processors

Distributing faces to processors

Distributing points to processors

Constructing processor meshes

Processor 0
    Number of cells = 25
    Number of points = 74
    Number of faces shared with processor 1 = 8
    Number of faces shared with processor 3 = 3
    Number of processor patches = 2
    Number of processor faces = 11
    Number of boundary faces = 61

Processor 1
    Number of cells = 25
    Number of points = 76
    Number of faces shared with processor 0 = 8
    Number of faces shared with processor 2 = 6
    Number of faces shared with processor 3 = 1
    Number of processor patches = 3
    Number of processor faces = 15
    Number of boundary faces = 59

Processor 2
    Number of cells = 25
    Number of points = 74
    Number of faces shared with processor 1 = 6
    Number of faces shared with processor 3 = 8
    Number of processor patches = 2
    Number of processor faces = 14
    Number of boundary faces = 58

Processor 3
    Number of cells = 25
    Number of points = 76
    Number of faces shared with processor 0 = 3
    Number of faces shared with processor 1 = 1
    Number of faces shared with processor 2 = 8
    Number of processor patches = 3
    Number of processor faces = 12
    Number of boundary faces = 62

Number of processor faces = 26
Max number of cells = 25 (0% above average 25)
Max number of processor patches = 3 (20% above average 2.5)
Max number of faces between processors = 15 (15.3846% above average 13)

Time = 0
--> FOAM Warning : 
    From bool Foam::IOobject::readHeader(Foam::dictionary&, Foam::Istream&)
    in file db/IOobject/IOobjectReadHeader.C at line 118
    Reading "constant/properties:Zone.Identifier" at line 1
    First token could not be read or is not 'FoamFile'

Check header is of the form:

/*--------------------------------*- C++ -*----------------------------------*\
| =========                 |                                                 |
| \\      /  F ield         | OpenFOAM: The Open Source CFD Toolbox           |
|  \\    /   O peration     | Version:  2412                                  |
|   \\  /    A nd           | Website:  www.openfoam.com                      |
|    \\/     M anipulation  |                                                 |
\*---------------------------------------------------------------------------*/
FoamFile
{
    version     2.0;
    format      ascii;
    arch        "LSB;label=32;scalar=64";
    class       IOobject;
    location    "constant";
    object      properties:Zone.Identifier;
}
// * * * * * * * * * * * * * * * * * * * * * * * * * * * * * * * * * * * * * //


Processor 0: field transfer
Processor 1: field transfer
Processor 2: field transfer
Processor 3: field transfer

End

