/*---------------------------------------------------------------------------*\
| =========                 |                                                 |
| \\      /  F ield         | OpenFOAM: The Open Source CFD Toolbox           |
|  \\    /   O peration     | Version:  2412                                  |
|   \\  /    A nd           | Website:  www.openfoam.com                      |
|    \\/     M anipulation  |                                                 |
\*---------------------------------------------------------------------------*/
Build  : _8dbc61e11c-20241220 OPENFOAM=2412 version=v2412
Arch   : "LSB;label=32;scalar=64"
Exec   : changeDictionary -parallel -decomposeParDict system/decomposeParDict -region leftFluid
Date   : Oct 23 2025
Time   : 17:52:44
Host   : rpasolari
PID    : 215976
I/O    : uncollated
Case   : /home/rpasolari-wsl/Linux-Desktop/CERTH/solvers/OpenFOAM/OF2412/foamPlasmaToolkit/tests/2DTestPlasmaFoam
nProcs : 4
Hosts  :
(
    (rpasolari 4)
)
Pstream initialized with:
    floatTransfer      : false
    maxCommsSize       : 0
    nProcsSimpleSum    : 0
    nonBlockingExchange: 0 (tuning: 0)
    exchange algorithm : 0
    commsType          : nonBlocking
    polling iterations : 0
trapFpe: Floating point exception trapping enabled (FOAM_SIGFPE).
fileModificationChecking : Monitoring run-time modified files using timeStampMaster (fileModificationSkew 5, maxFileModificationPolls 20)
allowSystemOperations : Allowing user-supplied system call operations

// * * * * * * * * * * * * * * * * * * * * * * * * * * * * * * * * * * * * * //
Create time

Create mesh leftFluid for time = 0

Read dictionary changeDictionaryDict with replacements for dictionaries 3(ePotential eCharge surfCharge)
Reading polyMesh/boundary file to extract patch names
Loaded dictionary boundary with entries 7(backFront bottom top left leftFluid_to_rightSolid procBoundary0to1 procBoundary0to3)
Extracted patch groups:
    group empty with patches 1(backFront)
    group processor with patches 2(procBoundary0to1 procBoundary0to3)
    group wall with patches 1(leftFluid_to_rightSolid)
Replacing entries in dictionary ePotential
Loading dictionary ePotential
Loaded dictionary ePotential with entries 3(dimensions internalField boundaryField)
Merging entries from 2(internalField boundaryField)
Writing modified fieldDict ePotential
Replacing entries in dictionary eCharge
Loading dictionary eCharge
Loaded dictionary eCharge with entries 3(dimensions internalField boundaryField)
Merging entries from 2(internalField boundaryField)
Writing modified fieldDict eCharge
Replacing entries in dictionary surfCharge
Loading dictionary surfCharge
Loaded dictionary surfCharge with entries 3(dimensions internalField boundaryField)
Merging entries from 2(internalField boundaryField)
Writing modified fieldDict surfCharge

End

Finalising parallel run
