/*---------------------------------------------------------------------------*\
| =========                 |                                                 |
| \\      /  F ield         | OpenFOAM: The Open Source CFD Toolbox           |
|  \\    /   O peration     | Version:  2412                                  |
|   \\  /    A nd           | Website:  www.openfoam.com                      |
|    \\/     M anipulation  |                                                 |
\*---------------------------------------------------------------------------*/
Build  : _8dbc61e11c-20241220 OPENFOAM=2412 version=v2412
Arch   : "LSB;label=32;scalar=64"
Exec   : plasmaFoam -parallel
Date   : Oct 23 2025
Time   : 17:52:44
Host   : rpasolari
PID    : 215997
I/O    : uncollated
Case   : /home/rpasolari-wsl/Linux-Desktop/CERTH/solvers/OpenFOAM/OF2412/foamPlasmaToolkit/tests/2DTestPlasmaFoam
nProcs : 4
Hosts  :
(
    (rpasolari 4)
)
Pstream initialized with:
    floatTransfer      : false
    maxCommsSize       : 0
    nProcsSimpleSum    : 0
    nonBlockingExchange: 0 (tuning: 0)
    exchange algorithm : 0
    commsType          : nonBlocking
    polling iterations : 0
trapFpe: Floating point exception trapping enabled (FOAM_SIGFPE).
fileModificationChecking : Monitoring run-time modified files using timeStampMaster (fileModificationSkew 5, maxFileModificationPolls 20)
allowSystemOperations : Allowing user-supplied system call operations

// * * * * * * * * * * * * * * * * * * * * * * * * * * * * * * * * * * * * * //
Create time

Create fluid mesh for region leftFluid for time = 0

Create dielectric mesh for region rightSolid for time = 0

*** Reading fields for region leftFluid

   Adding to ePotentialFluid

   Adding to eChargeFluid

   Adding to surfChargeFluid

   Adding material's permittivity

   Adding fvOptions

*** Reading fields for region rightSolid

   Adding to ePotentialDielectric

   Adding to surfChargeDielectric

   Adding material's permittivity

Create fvMatrixAssembly based on fluid region leftFluid

Time = 0.05


Solving for fluid region leftFluid
TAKA
ELAFKI

Solving for dielectric region rightSolid

Solving energy coupled regions 
Creating lduPrimitiveAssembly: lduAssembly4
DICPCG:  Solving for ePotential, Initial residual = 1, Final residual = 6.75797e-09, No Iterations 23

Solved coupled energy regions!
ExecutionTime = 0.03 s  ClockTime = 0 s

Time = 0.1


Solving for fluid region leftFluid
TAKA
ELAFKI

Solving for dielectric region rightSolid

Solving energy coupled regions 
Using lduPrimitiveAssembly: lduAssembly4
DICPCG:  Solving for ePotential, Initial residual = 6.43888e-10, Final residual = 6.43888e-10, No Iterations 0

Solved coupled energy regions!
ExecutionTime = 0.03 s  ClockTime = 0 s

Time = 0.15


Solving for fluid region leftFluid
TAKA
ELAFKI

Solving for dielectric region rightSolid

Solving energy coupled regions 
Using lduPrimitiveAssembly: lduAssembly4
DICPCG:  Solving for ePotential, Initial residual = 6.43888e-10, Final residual = 6.43888e-10, No Iterations 0

Solved coupled energy regions!
ExecutionTime = 0.03 s  ClockTime = 0 s

Time = 0.2


Solving for fluid region leftFluid
TAKA
ELAFKI

Solving for dielectric region rightSolid

Solving energy coupled regions 
Using lduPrimitiveAssembly: lduAssembly4
DICPCG:  Solving for ePotential, Initial residual = 6.43888e-10, Final residual = 6.43888e-10, No Iterations 0

Solved coupled energy regions!
ExecutionTime = 0.03 s  ClockTime = 0 s

Time = 0.25


Solving for fluid region leftFluid
TAKA
ELAFKI

Solving for dielectric region rightSolid

Solving energy coupled regions 
Using lduPrimitiveAssembly: lduAssembly4
DICPCG:  Solving for ePotential, Initial residual = 6.43888e-10, Final residual = 6.43888e-10, No Iterations 0

Solved coupled energy regions!
ExecutionTime = 0.03 s  ClockTime = 0 s

Time = 0.3


Solving for fluid region leftFluid
TAKA
ELAFKI

Solving for dielectric region rightSolid

Solving energy coupled regions 
Using lduPrimitiveAssembly: lduAssembly4
DICPCG:  Solving for ePotential, Initial residual = 6.43888e-10, Final residual = 6.43888e-10, No Iterations 0

Solved coupled energy regions!
ExecutionTime = 0.03 s  ClockTime = 0 s

Time = 0.35


Solving for fluid region leftFluid
TAKA
ELAFKI

Solving for dielectric region rightSolid

Solving energy coupled regions 
Using lduPrimitiveAssembly: lduAssembly4
DICPCG:  Solving for ePotential, Initial residual = 6.43888e-10, Final residual = 6.43888e-10, No Iterations 0

Solved coupled energy regions!
ExecutionTime = 0.03 s  ClockTime = 0 s

Time = 0.4


Solving for fluid region leftFluid
TAKA
ELAFKI

Solving for dielectric region rightSolid

Solving energy coupled regions 
Using lduPrimitiveAssembly: lduAssembly4
DICPCG:  Solving for ePotential, Initial residual = 6.43888e-10, Final residual = 6.43888e-10, No Iterations 0

Solved coupled energy regions!
ExecutionTime = 0.04 s  ClockTime = 0 s

Time = 0.45


Solving for fluid region leftFluid
TAKA
ELAFKI

Solving for dielectric region rightSolid

Solving energy coupled regions 
Using lduPrimitiveAssembly: lduAssembly4
DICPCG:  Solving for ePotential, Initial residual = 6.43888e-10, Final residual = 6.43888e-10, No Iterations 0

Solved coupled energy regions!
ExecutionTime = 0.04 s  ClockTime = 0 s

Time = 0.5


Solving for fluid region leftFluid
TAKA
ELAFKI

Solving for dielectric region rightSolid

Solving energy coupled regions 
Using lduPrimitiveAssembly: lduAssembly4
DICPCG:  Solving for ePotential, Initial residual = 6.43888e-10, Final residual = 6.43888e-10, No Iterations 0

Solved coupled energy regions!
ExecutionTime = 0.04 s  ClockTime = 0 s

Time = 0.55


Solving for fluid region leftFluid
TAKA
ELAFKI

Solving for dielectric region rightSolid

Solving energy coupled regions 
Using lduPrimitiveAssembly: lduAssembly4
DICPCG:  Solving for ePotential, Initial residual = 6.43888e-10, Final residual = 6.43888e-10, No Iterations 0

Solved coupled energy regions!
ExecutionTime = 0.04 s  ClockTime = 0 s

Time = 0.6


Solving for fluid region leftFluid
TAKA
ELAFKI

Solving for dielectric region rightSolid

Solving energy coupled regions 
Using lduPrimitiveAssembly: lduAssembly4
DICPCG:  Solving for ePotential, Initial residual = 6.43888e-10, Final residual = 6.43888e-10, No Iterations 0

Solved coupled energy regions!
ExecutionTime = 0.04 s  ClockTime = 0 s

Time = 0.65


Solving for fluid region leftFluid
TAKA
ELAFKI

Solving for dielectric region rightSolid

Solving energy coupled regions 
Using lduPrimitiveAssembly: lduAssembly4
DICPCG:  Solving for ePotential, Initial residual = 6.43888e-10, Final residual = 6.43888e-10, No Iterations 0

Solved coupled energy regions!
ExecutionTime = 0.04 s  ClockTime = 0 s

Time = 0.7


Solving for fluid region leftFluid
TAKA
ELAFKI

Solving for dielectric region rightSolid

Solving energy coupled regions 
Using lduPrimitiveAssembly: lduAssembly4
DICPCG:  Solving for ePotential, Initial residual = 6.43888e-10, Final residual = 6.43888e-10, No Iterations 0

Solved coupled energy regions!
ExecutionTime = 0.04 s  ClockTime = 0 s

Time = 0.75


Solving for fluid region leftFluid
TAKA
ELAFKI

Solving for dielectric region rightSolid

Solving energy coupled regions 
Using lduPrimitiveAssembly: lduAssembly4
DICPCG:  Solving for ePotential, Initial residual = 6.43888e-10, Final residual = 6.43888e-10, No Iterations 0

Solved coupled energy regions!
ExecutionTime = 0.04 s  ClockTime = 0 s

Time = 0.8


Solving for fluid region leftFluid
TAKA
ELAFKI

Solving for dielectric region rightSolid

Solving energy coupled regions 
Using lduPrimitiveAssembly: lduAssembly4
DICPCG:  Solving for ePotential, Initial residual = 6.43888e-10, Final residual = 6.43888e-10, No Iterations 0

Solved coupled energy regions!
ExecutionTime = 0.05 s  ClockTime = 0 s

Time = 0.85


Solving for fluid region leftFluid
TAKA
ELAFKI

Solving for dielectric region rightSolid

Solving energy coupled regions 
Using lduPrimitiveAssembly: lduAssembly4
DICPCG:  Solving for ePotential, Initial residual = 6.43888e-10, Final residual = 6.43888e-10, No Iterations 0

Solved coupled energy regions!
ExecutionTime = 0.05 s  ClockTime = 0 s

Time = 0.9


Solving for fluid region leftFluid
TAKA
ELAFKI

Solving for dielectric region rightSolid

Solving energy coupled regions 
Using lduPrimitiveAssembly: lduAssembly4
DICPCG:  Solving for ePotential, Initial residual = 6.43888e-10, Final residual = 6.43888e-10, No Iterations 0

Solved coupled energy regions!
ExecutionTime = 0.05 s  ClockTime = 0 s

Time = 0.95


Solving for fluid region leftFluid
TAKA
ELAFKI

Solving for dielectric region rightSolid

Solving energy coupled regions 
Using lduPrimitiveAssembly: lduAssembly4
DICPCG:  Solving for ePotential, Initial residual = 6.43888e-10, Final residual = 6.43888e-10, No Iterations 0

Solved coupled energy regions!
ExecutionTime = 0.05 s  ClockTime = 0 s

Time = 1


Solving for fluid region leftFluid
TAKA
ELAFKI

Solving for dielectric region rightSolid

Solving energy coupled regions 
Using lduPrimitiveAssembly: lduAssembly4
DICPCG:  Solving for ePotential, Initial residual = 6.43888e-10, Final residual = 6.43888e-10, No Iterations 0

Solved coupled energy regions!
ExecutionTime = 0.05 s  ClockTime = 0 s

End

Finalising parallel run
