/*---------------------------------------------------------------------------*\
| =========                 |                                                 |
| \\      /  F ield         | OpenFOAM: The Open Source CFD Toolbox           |
|  \\    /   O peration     | Version:  2412                                  |
|   \\  /    A nd           | Website:  www.openfoam.com                      |
|    \\/     M anipulation  |                                                 |
\*---------------------------------------------------------------------------*/
Build  : _8dbc61e11c-20241220 OPENFOAM=2412 version=v2412
Arch   : "LSB;label=32;scalar=64"
Exec   : changeDictionary -parallel -decomposeParDict system/decomposeParDict -region rightSolid
Date   : Oct 23 2025
Time   : 17:52:43
Host   : rpasolari
PID    : 215939
I/O    : uncollated
Case   : /home/rpasolari-wsl/Linux-Desktop/CERTH/solvers/OpenFOAM/OF2412/foamPlasmaToolkit/tests/2DTestPlasmaFoam
nProcs : 4
Hosts  :
(
    (rpasolari 4)
)
Pstream initialized with:
    floatTransfer      : false
    maxCommsSize       : 0
    nProcsSimpleSum    : 0
    nonBlockingExchange: 0 (tuning: 0)
    exchange algorithm : 0
    commsType          : nonBlocking
    polling iterations : 0
trapFpe: Floating point exception trapping enabled (FOAM_SIGFPE).
fileModificationChecking : Monitoring run-time modified files using timeStampMaster (fileModificationSkew 5, maxFileModificationPolls 20)
allowSystemOperations : Allowing user-supplied system call operations

// * * * * * * * * * * * * * * * * * * * * * * * * * * * * * * * * * * * * * //
Create time

Create mesh rightSolid for time = 0

Read dictionary changeDictionaryDict with replacements for dictionaries 2(ePotential surfCharge)
Reading polyMesh/boundary file to extract patch names
Loaded dictionary boundary with entries 6(backFront bottom top right rightSolid_to_leftFluid procBoundary0to1)
Extracted patch groups:
    group empty with patches 1(backFront)
    group processor with patches 1(procBoundary0to1)
    group wall with patches 1(rightSolid_to_leftFluid)
Replacing entries in dictionary ePotential
Loading dictionary ePotential
Loaded dictionary ePotential with entries 3(dimensions internalField boundaryField)
Merging entries from 2(internalField boundaryField)
Writing modified fieldDict ePotential
Replacing entries in dictionary surfCharge
Loading dictionary surfCharge
Loaded dictionary surfCharge with entries 3(dimensions internalField boundaryField)
Merging entries from 2(internalField boundaryField)
Writing modified fieldDict surfCharge

End

Finalising parallel run
