/*---------------------------------------------------------------------------*\
| =========                 |                                                 |
| \\      /  F ield         | OpenFOAM: The Open Source CFD Toolbox           |
|  \\    /   O peration     | Version:  2412                                  |
|   \\  /    A nd           | Website:  www.openfoam.com                      |
|    \\/     M anipulation  |                                                 |
\*---------------------------------------------------------------------------*/
Build  : _8dbc61e11c-20241220 OPENFOAM=2412 version=v2412
Arch   : "LSB;label=32;scalar=64"
Exec   : splitMeshRegions -parallel -decomposeParDict system/decomposeParDict -cellZones -overwrite
Date   : Oct 23 2025
Time   : 17:52:43
Host   : rpasolari
PID    : 215910
I/O    : uncollated
Case   : /home/rpasolari-wsl/Linux-Desktop/CERTH/solvers/OpenFOAM/OF2412/foamPlasmaToolkit/tests/2DTestPlasmaFoam
nProcs : 4
Hosts  :
(
    (rpasolari 4)
)
Pstream initialized with:
    floatTransfer      : false
    maxCommsSize       : 0
    nProcsSimpleSum    : 0
    nonBlockingExchange: 0 (tuning: 0)
    exchange algorithm : 0
    commsType          : nonBlocking
    polling iterations : 0
trapFpe: Floating point exception trapping enabled (FOAM_SIGFPE).
fileModificationChecking : Monitoring run-time modified files using timeStampMaster (fileModificationSkew 5, maxFileModificationPolls 20)
allowSystemOperations : Allowing user-supplied system call operations

// * * * * * * * * * * * * * * * * * * * * * * * * * * * * * * * * * * * * * //
Create time

Create mesh for time = 0

Creating single patch per inter-region interface.

Trying to match regions to existing cell zones.


Number of regions:2

Writing region per cell file (for manual decomposition) to "/home/rpasolari-wsl/Linux-Desktop/CERTH/solvers/OpenFOAM/OF2412/foamPlasmaToolkit/tests/2DTestPlasmaFoam/processor0/constant/cellToRegion"

Writing region per cell as volScalarField to "/home/rpasolari-wsl/Linux-Desktop/CERTH/solvers/OpenFOAM/OF2412/foamPlasmaToolkit/tests/2DTestPlasmaFoam/processor0/0/cellToRegion"

Region	Cells
------	-----
0	50
1	50

Region	Zone	Name
------	----	----
0	(0)	leftFluid
1	(1)	rightSolid

Sizes of interfaces between regions:

Interface	Region	Region	Faces
---------	------	------	-----
0		0	1	10

Reading volScalarField: cellToRegion eCharge ePotential
Reading surfaceScalarField: surfCharge


Adding patches


Adding patches

For interface between region leftFluid and rightSolid added patches
    5	leftFluid_to_rightSolid
    6	rightSolid_to_leftFluid

Region 0
-------- 
Creating mesh for region 0 leftFluid
Mapping fields
Mapping field cellToRegion
Mapping field eCharge
Mapping field ePotential
Mapping field surfCharge
Deleting empty patches
Writing new mesh
Writing addressing to base mesh
Writing map pointRegionAddressing from region0 points back to base mesh.
Writing map faceRegionAddressing from region0 faces back to base mesh.
Writing map cellRegionAddressing from region0 cells back to base mesh.
Writing map boundaryRegionAddressing from region0 boundary back to base mesh.

Region 1
-------- 
Creating mesh for region 1 rightSolid
Mapping fields
Mapping field cellToRegion
Mapping field eCharge
Mapping field ePotential
Mapping field surfCharge
Deleting empty patches
Writing new mesh
Writing addressing to base mesh
Writing map pointRegionAddressing from region1 points back to base mesh.
Writing map faceRegionAddressing from region1 faces back to base mesh.
Writing map cellRegionAddressing from region1 cells back to base mesh.
Writing map boundaryRegionAddressing from region1 boundary back to base mesh.
End

Finalising parallel run
